    8
Cluster output
 Si    0.00000    0.00000    1.16768
 Si    0.00000    0.00000   -1.16768
 H     0.00000    1.39329    1.68602
 H    -1.20662   -0.69664    1.68602
 H     1.20662   -0.69664    1.68602
 H     0.00000   -1.39329   -1.68602
 H    -1.20662    0.69664   -1.68602
 H     1.20662    0.69664   -1.68602
